data_CZTS_opt_prim
_audit_creation_date              2014-10-20
_audit_creation_method            'Materials Studio'
_symmetry_space_group_name_H-M    'I-4'
_symmetry_Int_Tables_number       82
_symmetry_cell_setting            tetragonal
loop_
_symmetry_equiv_pos_as_xyz
  x,y,z
  -x,-y,z
  y,-x,-z
  -y,x,-z
  x+1/2,y+1/2,z+1/2
  -x+1/2,-y+1/2,z+1/2
  y+1/2,-x+1/2,-z+1/2
  -y+1/2,x+1/2,-z+1/2
_cell_length_a                    5.4377
_cell_length_b                    5.4377
_cell_length_c                    10.8567
_cell_angle_alpha                 90.0000
_cell_angle_beta                  90.0000
_cell_angle_gamma                 90.0000
loop_
_atom_site_label
_atom_site_type_symbol
_atom_site_fract_x
_atom_site_fract_y
_atom_site_fract_z
_atom_site_U_iso_or_equiv
_atom_site_adp_type
_atom_site_occupancy
S1     S    -0.24130   0.25475  -0.12213   0.01267  Uiso   1.00
Cu1    Cu    0.00000  -0.00000  -0.00000   0.01267  Uiso   1.00
Cu2    Cu   -1.00000   0.50000  -0.25000   0.01267  Uiso   1.00
Zn1    Zn   -0.50000   0.50000   0.00000   0.01267  Uiso   1.00
Sn1    Sn   -0.50000   1.00000  -0.25000   0.01267  Uiso   1.00
